*HEADING
cubit(mesh-t3-r1-hchintak.inp): 03/25/2024: 22:05:18
version: 14.1
**
********************************** P A R T S **********************************
*PART, NAME=Part-Default
**
********************************** N O D E S **********************************
*NODE, NSET=ALLNODES
       1,   -3.540243e-01,   -7.398436e-01
       2,   -3.859142e-01,   -7.917730e-01
       3,   -3.116133e-01,   -7.664870e-01
       4,   -2.867567e-01,   -8.364892e-01
       5,    2.213338e+00,   -8.588034e-01
       6,    1.976159e+00,   -8.472644e-01
       7,    2.000000e+00,   -1.100000e+00
       8,   -1.753695e-01,   -8.828308e-02
       9,   -2.017244e-01,   -9.250306e-02
      10,   -1.839658e-01,   -1.135339e-01
      11,   -1.669704e-01,   -1.354905e-01
      12,   -1.570783e-01,   -1.108601e-01
      13,   -1.479476e-01,   -8.429569e-02
      14,   -1.506167e-01,   -1.582041e-01
      15,   -1.351772e-01,   -1.815711e-01
      16,   -1.234553e-01,   -1.585750e-01
      17,   -1.117544e-01,   -1.346028e-01
      18,   -1.398413e-01,   -1.343721e-01
      19,    5.268254e+00,   -7.771346e-01
      20,    5.500000e+00,   -1.100000e+00
** ... 4886 like lines cut
**
********************************** E L E M E N T S ****************************
*ELEMENT, TYPE=CPS3, ELSET=EB1
       1,       1,       2,       3
       2,       3,       2,       4
       3,       5,       6,       7
       4,       8,       9,      10
       5,      10,      11,      12
       6,      12,      13,       8
       7,       8,      10,      12
       8,      14,      15,      16
       9,      16,      17,      18
      10,      19,      20,      21
      11,      18,      11,      14
      12,      14,      16,      18
      13,      22,      23,      24
      14,      25,      26,      27
      15,      27,      13,      28
      16,      29,      30,      31
      17,      28,      17,      25
      18,      25,      27,      28
      19,      32,      33,      34
      20,      12,      11,      18
** ... 9118 like lines cut
**
********************************** P R O P E R T I E S ************************
*SHELL SECTION, ELSET=EB1, SECTION INTEGRATION=SIMPSON, MATERIAL=Default-Steel
1.000000e+00
**
*END PART
**
**
**
********************************** E N D   P A R T S **********************************
**
**
********************************** A S S E M B L Y ************************************
**
*ASSEMBLY, NAME=ASSEMBLY1
**
*INSTANCE, NAME=Part-Default_1, PART=Part-Default
*END INSTANCE
**
*END ASSEMBLY
**
**
**
*MATERIAL, NAME = Default-Steel
*ELASTIC, TYPE=ISOTROPIC
2.068000e+05, 2.900000e-01
*DENSITY
7.000000e-06
*CONDUCTIVITY,TYPE=ISO
4.500000e-02
*SPECIFIC HEAT
5.000000e+02
**
**
************************************** H I S T O R Y *************************************
**
*PREPRINT
**
**************************************** S T E P 1 ***************************************
*STEP,INC=100,NAME=Default Set
**
*STATIC
1, 1, 1e-05, 1
**
**
**
**
*END STEP
