*HEADING
cubit(mesh-t3-r2-hchintak.inp): 03/25/2024: 22:05:19
version: 14.1
**
********************************** P A R T S **********************************
*PART, NAME=Part-Default
**
********************************** N O D E S **********************************
*NODE, NSET=ALLNODES
       1,    1.716024e-01,   -1.810887e-03
       2,    1.588728e-01,   -2.439389e-02
       3,    1.821490e-01,   -2.488786e-02
       4,    2.047126e-01,   -2.535081e-02
       5,    1.951630e-01,   -3.024177e-03
       6,    1.854217e-01,    2.069871e-02
       7,    2.254109e-01,   -2.597030e-02
       8,    2.423332e-01,   -2.679341e-02
       9,    2.383588e-01,   -8.978864e-03
      10,    2.333542e-01,    1.422803e-02
      11,    2.176769e-01,   -5.167847e-03
      12,    2.099083e-01,    1.863268e-02
      13,    6.166084e+00,   -2.978840e-01
      14,    6.023077e+00,   -1.000000e-01
      15,    5.917119e+00,   -2.978346e-01
      16,    1.284280e-01,    1.487218e-01
      17,    1.508496e-01,    1.513420e-01
      18,    1.370042e-01,    1.682978e-01
      19,    1.242510e-01,    1.857477e-01
      20,    1.150280e-01,    1.666999e-01
** ... 6409 like lines cut
**
********************************** E L E M E N T S ****************************
*ELEMENT, TYPE=CPS3, ELSET=EB1
       1,       1,       2,       3
       2,       3,       4,       5
       3,       5,       6,       1
       4,       1,       3,       5
       5,       7,       8,       9
       6,       9,      10,      11
       7,      11,       4,       7
       8,       7,       9,      11
       9,      12,       6,       5
      10,      13,      14,      15
      11,       5,       4,      11
      12,      11,      10,      12
      13,      12,       5,      11
      14,      16,      17,      18
      15,      18,      19,      20
      16,      20,      21,      16
      17,      22,      23,      24
      18,      16,      18,      20
      19,      25,      26,      27
      20,      28,      29,      30
** ... 12019 like lines cut
**
********************************** P R O P E R T I E S ************************
*SHELL SECTION, ELSET=EB1, SECTION INTEGRATION=SIMPSON, MATERIAL=Default-Steel
1.000000e+00
**
*END PART
**
**
**
********************************** E N D   P A R T S **********************************
**
**
********************************** A S S E M B L Y ************************************
**
*ASSEMBLY, NAME=ASSEMBLY1
**
*INSTANCE, NAME=Part-Default_1, PART=Part-Default
*END INSTANCE
**
*END ASSEMBLY
**
**
**
*MATERIAL, NAME = Default-Steel
*ELASTIC, TYPE=ISOTROPIC
2.068000e+05, 2.900000e-01
*DENSITY
7.000000e-06
*CONDUCTIVITY,TYPE=ISO
4.500000e-02
*SPECIFIC HEAT
5.000000e+02
**
**
************************************** H I S T O R Y *************************************
**
*PREPRINT
**
**************************************** S T E P 1 ***************************************
*STEP,INC=100,NAME=Default Set
**
*STATIC
1, 1, 1e-05, 1
**
**
**
**
*END STEP
