*HEADING
cubit(mesh-t6-r1-hchintak.inp): 03/25/2024: 22:05:18
version: 14.1
**
********************************** P A R T S **********************************
*PART, NAME=Part-Default
**
********************************** N O D E S **********************************
*NODE, NSET=ALLNODES
       1,   -3.540243e-01,   -7.398436e-01
       2,   -3.859142e-01,   -7.917730e-01
       3,   -3.116133e-01,   -7.664870e-01
       4,   -3.699693e-01,   -7.658083e-01
       5,   -3.487637e-01,   -7.791300e-01
       6,   -3.328188e-01,   -7.531653e-01
       7,   -2.867567e-01,   -8.364892e-01
       8,   -3.363355e-01,   -8.141311e-01
       9,   -2.991850e-01,   -8.014881e-01
      10,    2.213338e+00,   -8.588034e-01
      11,    1.976159e+00,   -8.472644e-01
      12,    2.000000e+00,   -1.100000e+00
      13,    2.094748e+00,   -8.530339e-01
      14,    1.988079e+00,   -9.736322e-01
      15,    2.106669e+00,   -9.794017e-01
      16,   -1.753695e-01,   -8.828308e-02
      17,   -2.017244e-01,   -9.250306e-02
      18,   -1.839658e-01,   -1.135339e-01
      19,   -1.885469e-01,   -9.039307e-02
      20,   -1.928451e-01,   -1.030185e-01
** ... 18943 like lines cut
**
********************************** E L E M E N T S ****************************
*ELEMENT, TYPE=CPS6, ELSET=EB1
       1,       1,       2,       3,       4,       5,       6
       2,       3,       2,       7,       5,       8,       9
       3,      10,      11,      12,      13,      14,      15
       4,      16,      17,      18,      19,      20,      21
       5,      18,      22,      23,      24,      25,      26
       6,      23,      27,      16,      28,      29,      30
       7,      16,      18,      23,      21,      26,      30
       8,      31,      32,      33,      34,      35,      36
       9,      33,      37,      38,      39,      40,      41
      10,      42,      43,      44,      45,      46,      47
      11,      38,      22,      31,      48,      49,      50
      12,      31,      33,      38,      36,      41,      50
      13,      51,      52,      53,      54,      55,      56
      14,      57,      58,      59,      60,      61,      62
      15,      59,      27,      63,      64,      65,      66
      16,      67,      68,      69,      70,      71,      72
      17,      63,      37,      57,      73,      74,      75
      18,      57,      59,      63,      62,      66,      75
      19,      76,      77,      78,      79,      80,      81
      20,      23,      22,      38,      25,      48,      82
** ... 9118 like lines cut
**
********************************** P R O P E R T I E S ************************
*SHELL SECTION, ELSET=EB1, SECTION INTEGRATION=SIMPSON, MATERIAL=Default-Steel
1.000000e+00
**
*END PART
**
**
**
********************************** E N D   P A R T S **********************************
**
**
********************************** A S S E M B L Y ************************************
**
*ASSEMBLY, NAME=ASSEMBLY1
**
*INSTANCE, NAME=Part-Default_1, PART=Part-Default
*END INSTANCE
**
*END ASSEMBLY
**
**
**
*MATERIAL, NAME = Default-Steel
*ELASTIC, TYPE=ISOTROPIC
2.068000e+05, 2.900000e-01
*DENSITY
7.000000e-06
*CONDUCTIVITY,TYPE=ISO
4.500000e-02
*SPECIFIC HEAT
5.000000e+02
**
**
************************************** H I S T O R Y *************************************
**
*PREPRINT
**
**************************************** S T E P 1 ***************************************
*STEP,INC=100,NAME=Default Set
**
*STATIC
1, 1, 1e-05, 1
**
**
**
**
*END STEP
