*HEADING
cubit(mesh-t3-r4.inp): 04/09/2024: 18:50:45
version: 14.1
**
********************************** P A R T S **********************************
*PART, NAME=Part-Default
**
********************************** N O D E S **********************************
*NODE, NSET=ALLNODES
       1,    3.301620e-02,   -4.715276e-02
       2,    1.241872e-02,   -2.134757e-02
       3,   -1.040529e-03,   -5.011756e-02
       4,    5.281227e+00,   -9.376302e-01
       5,    5.312485e+00,   -9.917535e-01
       6,    5.343728e+00,   -9.376298e-01
       7,    1.469789e+00,   -1.048771e+00
       8,    1.500000e+00,   -1.100000e+00
       9,    1.531735e+00,   -1.047308e+00
      10,   -1.050000e+01,    9.375000e-01
      11,   -1.045875e+01,    9.590116e-01
      12,   -1.050000e+01,    1.000000e+00
      13,   -1.469789e+00,    9.487708e-01
      14,   -1.500000e+00,    1.000000e+00
      15,   -1.531735e+00,    9.473077e-01
      16,   -1.843698e+00,    9.458967e-01
      17,   -1.875000e+00,    1.000000e+00
      18,   -1.906200e+00,    9.458955e-01
      19,    1.921218e-02,   -7.628466e-02
      20,   -2.121415e-02,   -2.397995e-02
** ... 18643 like lines cut
**
********************************** E L E M E N T S ****************************
*ELEMENT, TYPE=CPS3, ELSET=EB1
       1,       1,       2,       3
       2,       4,       5,       6
       3,       7,       8,       9
       4,      10,      11,      12
       5,      13,      14,      15
       6,      16,      17,      18
       7,       3,      19,       1
       8,       2,      20,       3
       9,      21,      22,      23
      10,       1,      24,       2
      11,      25,      26,      27
      12,      28,      29,      30
      13,      31,      32,      33
      14,      33,      34,      31
      15,      32,      19,      33
      16,      35,      36,      37
      17,      38,      39,      40
      18,      31,      41,      32
      19,      40,      42,      43
      20,      44,      45,      46
** ... 36358 like lines cut
**
********************************** P R O P E R T I E S ************************
*SHELL SECTION, ELSET=EB1, SECTION INTEGRATION=SIMPSON, MATERIAL=Default-Steel
1.000000e+00
**
*END PART
**
**
**
********************************** E N D   P A R T S **********************************
**
**
********************************** A S S E M B L Y ************************************
**
*ASSEMBLY, NAME=ASSEMBLY1
**
*INSTANCE, NAME=Part-Default_1, PART=Part-Default
*END INSTANCE
**
*END ASSEMBLY
**
**
**
*MATERIAL, NAME = Default-Steel
*ELASTIC, TYPE=ISOTROPIC
2.068000e+05, 2.900000e-01
*DENSITY
7.000000e-06
*CONDUCTIVITY,TYPE=ISO
4.500000e-02
*SPECIFIC HEAT
5.000000e+02
**
**
************************************** H I S T O R Y *************************************
**
*PREPRINT
**
**************************************** S T E P 1 ***************************************
*STEP,INC=100,NAME=Default Set
**
*STATIC
1, 1, 1e-05, 1
**
**
**
**
*END STEP
