*HEADING
cubit(mesh-t6-r3.inp): 04/09/2024: 18:50:44
version: 14.1
**
********************************** P A R T S **********************************
*PART, NAME=Part-Default
**
********************************** N O D E S **********************************
*NODE, NSET=ALLNODES
       1,    9.376993e-02,   -5.545783e-02
       2,    7.908624e-02,   -1.110178e-01
       3,    1.349041e-01,   -9.460294e-02
       4,    8.642808e-02,   -8.323783e-02
       5,    1.069952e-01,   -1.028104e-01
       6,    1.143370e-01,   -7.503039e-02
       7,    5.625000e+00,   -1.100000e+00
       8,    5.750000e+00,   -1.100000e+00
       9,    5.684441e+00,   -9.899217e-01
      10,    5.687500e+00,   -1.100000e+00
      11,    5.717220e+00,   -1.044961e+00
      12,    5.654720e+00,   -1.044961e+00
      13,    1.750000e+00,   -1.100000e+00
      14,    1.875000e+00,   -1.100000e+00
      15,    1.811759e+00,   -9.927663e-01
      16,    1.812500e+00,   -1.100000e+00
      17,    1.843380e+00,   -1.046383e+00
      18,    1.780880e+00,   -1.046383e+00
      19,   -1.050000e+01,    8.750000e-01
      20,   -1.041741e+01,    9.178076e-01
** ... 20135 like lines cut
**
********************************** E L E M E N T S ****************************
*ELEMENT, TYPE=CPS6, ELSET=EB1
       1,       1,       2,       3,       4,       5,       6
       2,       7,       8,       9,      10,      11,      12
       3,      13,      14,      15,      16,      17,      18
       4,      19,      20,      21,      22,      23,      24
       5,      25,      26,      27,      28,      29,      30
       6,      31,      32,      33,      34,      35,      36
       7,       3,      37,       1,      38,      39,       6
       8,       2,      40,       3,      41,      42,       5
       9,      43,      44,      45,      46,      47,      48
      10,       1,      49,       2,      50,      51,       4
      11,      52,      53,      54,      55,      56,      57
      12,      58,      59,      60,      61,      62,      63
      13,      64,      65,      66,      67,      68,      69
      14,      66,      70,      64,      71,      72,      69
      15,      73,      74,      75,      76,      77,      78
      16,      65,      40,      66,      79,      80,      68
      17,      81,      82,      83,      84,      85,      86
      18,      64,      87,      65,      88,      89,      67
      19,      90,      91,      92,      93,      94,      95
      20,      96,      97,      98,      99,     100,     101
** ... 9810 like lines cut
**
********************************** P R O P E R T I E S ************************
*SHELL SECTION, ELSET=EB1, SECTION INTEGRATION=SIMPSON, MATERIAL=Default-Steel
1.000000e+00
**
*END PART
**
**
**
********************************** E N D   P A R T S **********************************
**
**
********************************** A S S E M B L Y ************************************
**
*ASSEMBLY, NAME=ASSEMBLY1
**
*INSTANCE, NAME=Part-Default_1, PART=Part-Default
*END INSTANCE
**
*END ASSEMBLY
**
**
**
*MATERIAL, NAME = Default-Steel
*ELASTIC, TYPE=ISOTROPIC
2.068000e+05, 2.900000e-01
*DENSITY
7.000000e-06
*CONDUCTIVITY,TYPE=ISO
4.500000e-02
*SPECIFIC HEAT
5.000000e+02
**
**
************************************** H I S T O R Y *************************************
**
*PREPRINT
**
**************************************** S T E P 1 ***************************************
*STEP,INC=100,NAME=Default Set
**
*STATIC
1, 1, 1e-05, 1
**
**
**
**
*END STEP
