*HEADING
cubit(mesh-t3-r1.inp): 04/09/2024: 18:50:42
version: 14.1
**
********************************** P A R T S **********************************
*PART, NAME=Part-Default
**
********************************** N O D E S **********************************
*NODE, NSET=ALLNODES
       1,    6.485578e-03,   -5.375474e-02
       2,   -7.741182e-02,   -2.148101e-01
       3,    8.020574e-02,   -2.111923e-01
       4,    5.195294e+00,   -6.000434e-01
       5,    5.500000e+00,   -1.100000e+00
       6,    5.700504e+00,   -6.000410e-01
       7,    1.810440e-01,   -5.039528e-02
       8,   -1.050000e+01,    5.000000e-01
       9,   -1.017618e+01,    5.000002e-01
      10,   -1.050000e+01,    1.000000e+00
      11,   -1.390910e-04,   -3.707880e-01
      12,   -2.163171e+00,    5.213146e-01
      13,   -2.669222e+00,    5.048536e-01
      14,   -2.331579e+00,    0.000000e+00
      15,   -1.688745e-01,   -5.580943e-02
      16,    6.189244e-01,    2.531120e-01
      17,    6.087679e-01,    1.979435e-01
      18,    6.588731e-01,    2.078185e-01
      19,   -5.700504e+00,    5.000410e-01
      20,   -5.905263e+00,    0.000000e+00
** ... 591 like lines cut
**
********************************** E L E M E N T S ****************************
*ELEMENT, TYPE=CPS3, ELSET=EB1
       1,       1,       2,       3
       2,       4,       5,       6
       3,       3,       7,       1
       4,       8,       9,      10
       5,       2,      11,       3
       6,      12,      13,      14
       7,       1,      15,       2
       8,      16,      17,      18
       9,      19,      20,      21
      10,      18,      22,      23
      11,      23,      16,      18
      12,      24,      25,      26
      13,      27,      28,      29
      14,      30,      31,      32
      15,      31,      33,      32
      16,      32,      33,      34
      17,      35,      36,      37
      18,      38,      39,      40
      19,      40,      41,      42
      20,      42,      34,      38
** ... 1062 like lines cut
**
********************************** P R O P E R T I E S ************************
*SHELL SECTION, ELSET=EB1, SECTION INTEGRATION=SIMPSON, MATERIAL=Default-Steel
1.000000e+00
**
*END PART
**
**
**
********************************** E N D   P A R T S **********************************
**
**
********************************** A S S E M B L Y ************************************
**
*ASSEMBLY, NAME=ASSEMBLY1
**
*INSTANCE, NAME=Part-Default_1, PART=Part-Default
*END INSTANCE
**
*END ASSEMBLY
**
**
**
*MATERIAL, NAME = Default-Steel
*ELASTIC, TYPE=ISOTROPIC
2.068000e+05, 2.900000e-01
*DENSITY
7.000000e-06
*CONDUCTIVITY,TYPE=ISO
4.500000e-02
*SPECIFIC HEAT
5.000000e+02
**
**
************************************** H I S T O R Y *************************************
**
*PREPRINT
**
**************************************** S T E P 1 ***************************************
*STEP,INC=100,NAME=Default Set
**
*STATIC
1, 1, 1e-05, 1
**
**
**
**
*END STEP
